Circuit: * C:\Users\1\Documents\EAGLE\projects\Carrega\LTSPICE SIM.asc

C1: Increased Cpar to 1e-015
WARNING: Less than two connections to node VSENS.  This node is used by R13.
WARNING: Less than two connections to node ISENS.  This node is used by R22.
Per .tran options, skipping operating point for transient analysis.

Date: Tue Mar 08 15:30:26 2022
Total elapsed time: 0.724 seconds.

tnom = 27
temp = 27
method = modified trap
totiter = 8831
traniter = 8831
tranpoints = 1593
accept = 1225
rejected = 368
matrix size = 113
fillins = 257
solver = Normal
Thread vector: 15.6/12.9[3] 7.5/5.4[3] 4.6/3.6[2] 1.1/2.5[1]  2592/500
Matrix Compiler1: 20.30 KB object code size  12.6/7.3/[2.5]
Matrix Compiler2: 13.91 KB object code size  5.0/5.5/[1.4]

